**
** Heading +++++++++++++++++++++++++++++++++++++++++++++++++
**
*Heading
Hash: 4z6Otmxe, Date: 12/24/2024, Unit system: MM_TON_S_C
**
** Nodes +++++++++++++++++++++++++++++++++++++++++++++++++++
**
*Node
1, 2.00000000E+002, 0.00000000E+000, 0.00000000E+000
2, 2.00000000E+002, 0.00000000E+000, 2.00000000E+002
3, 2.00000000E+002, 2.00000000E+002, 0.00000000E+000
4, 2.00000000E+002, 2.00000000E+002, 2.00000000E+002
5, 0.00000000E+000, 0.00000000E+000, 0.00000000E+000
6, 0.00000000E+000, 0.00000000E+000, 2.00000000E+002
7, 0.00000000E+000, 2.00000000E+002, 0.00000000E+000
8, 0.00000000E+000, 2.00000000E+002, 2.00000000E+002
9, 2.00000000E+002, 0.00000000E+000, 1.00000000E+001
10, 2.00000000E+002, 0.00000000E+000, 2.00000000E+001
11, 2.00000000E+002, 0.00000000E+000, 3.00000000E+001
12, 2.00000000E+002, 0.00000000E+000, 4.00000000E+001
13, 2.00000000E+002, 0.00000000E+000, 5.00000000E+001
14, 2.00000000E+002, 0.00000000E+000, 6.00000000E+001
15, 2.00000000E+002, 0.00000000E+000, 7.00000000E+001
16, 2.00000000E+002, 0.00000000E+000, 8.00000000E+001
17, 2.00000000E+002, 0.00000000E+000, 9.00000000E+001
18, 2.00000000E+002, 0.00000000E+000, 1.00000000E+002
19, 2.00000000E+002, 0.00000000E+000, 1.10000000E+002
20, 2.00000000E+002, 0.00000000E+000, 1.20000000E+002
** ... 18510 like lines cut
**
** Elements ++++++++++++++++++++++++++++++++++++++++++++++++
**
*Element, Type=C3D8, Elset=Solid_part-1
1, 1, 9, 237, 28, 85, 598, 2403, 959
2, 85, 598, 2403, 959, 86, 599, 2404, 960
3, 86, 599, 2404, 960, 87, 600, 2405, 961
4, 87, 600, 2405, 961, 88, 601, 2406, 962
5, 88, 601, 2406, 962, 89, 602, 2407, 963
6, 89, 602, 2407, 963, 90, 603, 2408, 964
7, 90, 603, 2408, 964, 91, 604, 2409, 965
8, 91, 604, 2409, 965, 92, 605, 2410, 966
9, 92, 605, 2410, 966, 93, 606, 2411, 967
10, 93, 606, 2411, 967, 94, 607, 2412, 968
11, 94, 607, 2412, 968, 95, 608, 2413, 969
12, 95, 608, 2413, 969, 96, 609, 2414, 970
13, 96, 609, 2414, 970, 97, 610, 2415, 971
14, 97, 610, 2415, 971, 98, 611, 2416, 972
15, 98, 611, 2416, 972, 99, 612, 2417, 973
16, 99, 612, 2417, 973, 100, 613, 2418, 974
17, 100, 613, 2418, 974, 101, 614, 2419, 975
18, 101, 614, 2419, 975, 102, 615, 2420, 976
19, 102, 615, 2420, 976, 103, 616, 2421, 977
20, 103, 616, 2421, 977, 5, 123, 2042, 161
** ... 7980 like lines cut
*Element, Type=C3D8, Elset=Solid_part-2
8001, 9262, 9270, 9498, 9289, 9346, 9859, 11664, 10220
8002, 9346, 9859, 11664, 10220, 9347, 9860, 11665, 10221
8003, 9347, 9860, 11665, 10221, 9348, 9861, 11666, 10222
8004, 9348, 9861, 11666, 10222, 9349, 9862, 11667, 10223
8005, 9349, 9862, 11667, 10223, 9350, 9863, 11668, 10224
8006, 9350, 9863, 11668, 10224, 9351, 9864, 11669, 10225
8007, 9351, 9864, 11669, 10225, 9352, 9865, 11670, 10226
8008, 9352, 9865, 11670, 10226, 9353, 9866, 11671, 10227
8009, 9353, 9866, 11671, 10227, 9354, 9867, 11672, 10228
8010, 9354, 9867, 11672, 10228, 9355, 9868, 11673, 10229
8011, 9355, 9868, 11673, 10229, 9356, 9869, 11674, 10230
8012, 9356, 9869, 11674, 10230, 9357, 9870, 11675, 10231
8013, 9357, 9870, 11675, 10231, 9358, 9871, 11676, 10232
8014, 9358, 9871, 11676, 10232, 9359, 9872, 11677, 10233
8015, 9359, 9872, 11677, 10233, 9360, 9873, 11678, 10234
8016, 9360, 9873, 11678, 10234, 9361, 9874, 11679, 10235
8017, 9361, 9874, 11679, 10235, 9362, 9875, 11680, 10236
8018, 9362, 9875, 11680, 10236, 9363, 9876, 11681, 10237
8019, 9363, 9876, 11681, 10237, 9364, 9877, 11682, 10238
8020, 9364, 9877, 11682, 10238, 9266, 9384, 11303, 9422
** ... 7980 like lines cut
**
** Additional elements +++++++++++++++++++++++++++++++++++++
**
*Element, Type=SPRING1, Elset=k_1_All
16001, 18523
*Element,TYPE=SPRINGA,ELSET=ESPRING
999999,18525,18527
**
** Node sets +++++++++++++++++++++++++++++++++++++++++++++++
**
*Nset, Nset=END_1_1
1, 2, 5, 6, 9, 10, 11, 12, 13, 14, 15, 16, 17, 18, 19, 20, 
21, 22, 23, 24, 25, 26, 27, 85, 86, 87, 88, 89, 90, 91, 92, 93, 
94, 95, 96, 97, 98, 99, 100, 101, 102, 103, 104, 105, 106, 107, 108, 109, 
110, 111, 112, 113, 114, 115, 116, 117, 118, 119, 120, 121, 122, 123, 124, 125, 
126, 127, 128, 129, 130, 131, 132, 133, 134, 135, 136, 137, 138, 139, 140, 141, 
598, 599, 600, 601, 602, 603, 604, 605, 606, 607, 608, 609, 610, 611, 612, 613, 
614, 615, 616, 617, 618, 619, 620, 621, 622, 623, 624, 625, 626, 627, 628, 629, 
630, 631, 632, 633, 634, 635, 636, 637, 638, 639, 640, 641, 642, 643, 644, 645, 
646, 647, 648, 649, 650, 651, 652, 653, 654, 655, 656, 657, 658, 659, 660, 661, 
662, 663, 664, 665, 666, 667, 668, 669, 670, 671, 672, 673, 674, 675, 676, 677, 
678, 679, 680, 681, 682, 683, 684, 685, 686, 687, 688, 689, 690, 691, 692, 693, 
694, 695, 696, 697, 698, 699, 700, 701, 702, 703, 704, 705, 706, 707, 708, 709, 
710, 711, 712, 713, 714, 715, 716, 717, 718, 719, 720, 721, 722, 723, 724, 725, 
726, 727, 728, 729, 730, 731, 732, 733, 734, 735, 736, 737, 738, 739, 740, 741, 
742, 743, 744, 745, 746, 747, 748, 749, 750, 751, 752, 753, 754, 755, 756, 757, 
758, 759, 760, 761, 762, 763, 764, 765, 766, 767, 768, 769, 770, 771, 772, 773, 
774, 775, 776, 777, 778, 779, 780, 781, 782, 783, 784, 785, 786, 787, 788, 789, 
790, 791, 792, 793, 794, 795, 796, 797, 798, 799, 800, 801, 802, 803, 804, 805, 
806, 807, 808, 809, 810, 811, 812, 813, 814, 815, 816, 817, 818, 819, 820, 821, 
822, 823, 824, 825, 826, 827, 828, 829, 830, 831, 832, 833, 834, 835, 836, 837, 
** ... 8 like lines cut
*Nset, Nset=END_1_2
3, 4, 7, 8, 47, 48, 49, 50, 51, 52, 53, 54, 55, 56, 57, 58, 
59, 60, 61, 62, 63, 64, 65, 142, 143, 144, 145, 146, 147, 148, 149, 150, 
151, 152, 153, 154, 155, 156, 157, 158, 159, 160, 180, 181, 182, 183, 184, 185, 
186, 187, 188, 189, 190, 191, 192, 193, 194, 195, 196, 197, 198, 199, 200, 201, 
202, 203, 204, 205, 206, 207, 208, 209, 210, 211, 212, 213, 214, 215, 216, 217, 
1320, 1321, 1322, 1323, 1324, 1325, 1326, 1327, 1328, 1329, 1330, 1331, 1332, 1333, 1334, 1335, 
1336, 1337, 1338, 1339, 1340, 1341, 1342, 1343, 1344, 1345, 1346, 1347, 1348, 1349, 1350, 1351, 
1352, 1353, 1354, 1355, 1356, 1357, 1358, 1359, 1360, 1361, 1362, 1363, 1364, 1365, 1366, 1367, 
1368, 1369, 1370, 1371, 1372, 1373, 1374, 1375, 1376, 1377, 1378, 1379, 1380, 1381, 1382, 1383, 
1384, 1385, 1386, 1387, 1388, 1389, 1390, 1391, 1392, 1393, 1394, 1395, 1396, 1397, 1398, 1399, 
1400, 1401, 1402, 1403, 1404, 1405, 1406, 1407, 1408, 1409, 1410, 1411, 1412, 1413, 1414, 1415, 
1416, 1417, 1418, 1419, 1420, 1421, 1422, 1423, 1424, 1425, 1426, 1427, 1428, 1429, 1430, 1431, 
1432, 1433, 1434, 1435, 1436, 1437, 1438, 1439, 1440, 1441, 1442, 1443, 1444, 1445, 1446, 1447, 
1448, 1449, 1450, 1451, 1452, 1453, 1454, 1455, 1456, 1457, 1458, 1459, 1460, 1461, 1462, 1463, 
1464, 1465, 1466, 1467, 1468, 1469, 1470, 1471, 1472, 1473, 1474, 1475, 1476, 1477, 1478, 1479, 
1480, 1481, 1482, 1483, 1484, 1485, 1486, 1487, 1488, 1489, 1490, 1491, 1492, 1493, 1494, 1495, 
1496, 1497, 1498, 1499, 1500, 1501, 1502, 1503, 1504, 1505, 1506, 1507, 1508, 1509, 1510, 1511, 
1512, 1513, 1514, 1515, 1516, 1517, 1518, 1519, 1520, 1521, 1522, 1523, 1524, 1525, 1526, 1527, 
1528, 1529, 1530, 1531, 1532, 1533, 1534, 1535, 1536, 1537, 1538, 1539, 1540, 1541, 1542, 1543, 
1544, 1545, 1546, 1547, 1548, 1549, 1550, 1551, 1552, 1553, 1554, 1555, 1556, 1557, 1558, 1559, 
** ... 8 like lines cut
*Nset, Nset=END_2_1
9262, 9263, 9266, 9267, 9270, 9271, 9272, 9273, 9274, 9275, 9276, 9277, 9278, 9279, 9280, 9281, 
9282, 9283, 9284, 9285, 9286, 9287, 9288, 9346, 9347, 9348, 9349, 9350, 9351, 9352, 9353, 9354, 
9355, 9356, 9357, 9358, 9359, 9360, 9361, 9362, 9363, 9364, 9365, 9366, 9367, 9368, 9369, 9370, 
9371, 9372, 9373, 9374, 9375, 9376, 9377, 9378, 9379, 9380, 9381, 9382, 9383, 9384, 9385, 9386, 
9387, 9388, 9389, 9390, 9391, 9392, 9393, 9394, 9395, 9396, 9397, 9398, 9399, 9400, 9401, 9402, 
9859, 9860, 9861, 9862, 9863, 9864, 9865, 9866, 9867, 9868, 9869, 9870, 9871, 9872, 9873, 9874, 
9875, 9876, 9877, 9878, 9879, 9880, 9881, 9882, 9883, 9884, 9885, 9886, 9887, 9888, 9889, 9890, 
9891, 9892, 9893, 9894, 9895, 9896, 9897, 9898, 9899, 9900, 9901, 9902, 9903, 9904, 9905, 9906, 
9907, 9908, 9909, 9910, 9911, 9912, 9913, 9914, 9915, 9916, 9917, 9918, 9919, 9920, 9921, 9922, 
9923, 9924, 9925, 9926, 9927, 9928, 9929, 9930, 9931, 9932, 9933, 9934, 9935, 9936, 9937, 9938, 
9939, 9940, 9941, 9942, 9943, 9944, 9945, 9946, 9947, 9948, 9949, 9950, 9951, 9952, 9953, 9954, 
9955, 9956, 9957, 9958, 9959, 9960, 9961, 9962, 9963, 9964, 9965, 9966, 9967, 9968, 9969, 9970, 
9971, 9972, 9973, 9974, 9975, 9976, 9977, 9978, 9979, 9980, 9981, 9982, 9983, 9984, 9985, 9986, 
9987, 9988, 9989, 9990, 9991, 9992, 9993, 9994, 9995, 9996, 9997, 9998, 9999, 10000, 10001, 10002, 
10003, 10004, 10005, 10006, 10007, 10008, 10009, 10010, 10011, 10012, 10013, 10014, 10015, 10016, 10017, 10018, 
10019, 10020, 10021, 10022, 10023, 10024, 10025, 10026, 10027, 10028, 10029, 10030, 10031, 10032, 10033, 10034, 
10035, 10036, 10037, 10038, 10039, 10040, 10041, 10042, 10043, 10044, 10045, 10046, 10047, 10048, 10049, 10050, 
10051, 10052, 10053, 10054, 10055, 10056, 10057, 10058, 10059, 10060, 10061, 10062, 10063, 10064, 10065, 10066, 
10067, 10068, 10069, 10070, 10071, 10072, 10073, 10074, 10075, 10076, 10077, 10078, 10079, 10080, 10081, 10082, 
10083, 10084, 10085, 10086, 10087, 10088, 10089, 10090, 10091, 10092, 10093, 10094, 10095, 10096, 10097, 10098, 
** ... 8 like lines cut
*Nset, Nset=END_2_2
9264, 9265, 9268, 9269, 9308, 9309, 9310, 9311, 9312, 9313, 9314, 9315, 9316, 9317, 9318, 9319, 
9320, 9321, 9322, 9323, 9324, 9325, 9326, 9403, 9404, 9405, 9406, 9407, 9408, 9409, 9410, 9411, 
9412, 9413, 9414, 9415, 9416, 9417, 9418, 9419, 9420, 9421, 9441, 9442, 9443, 9444, 9445, 9446, 
9447, 9448, 9449, 9450, 9451, 9452, 9453, 9454, 9455, 9456, 9457, 9458, 9459, 9460, 9461, 9462, 
9463, 9464, 9465, 9466, 9467, 9468, 9469, 9470, 9471, 9472, 9473, 9474, 9475, 9476, 9477, 9478, 
10581, 10582, 10583, 10584, 10585, 10586, 10587, 10588, 10589, 10590, 10591, 10592, 10593, 10594, 10595, 10596, 
10597, 10598, 10599, 10600, 10601, 10602, 10603, 10604, 10605, 10606, 10607, 10608, 10609, 10610, 10611, 10612, 
10613, 10614, 10615, 10616, 10617, 10618, 10619, 10620, 10621, 10622, 10623, 10624, 10625, 10626, 10627, 10628, 
10629, 10630, 10631, 10632, 10633, 10634, 10635, 10636, 10637, 10638, 10639, 10640, 10641, 10642, 10643, 10644, 
10645, 10646, 10647, 10648, 10649, 10650, 10651, 10652, 10653, 10654, 10655, 10656, 10657, 10658, 10659, 10660, 
10661, 10662, 10663, 10664, 10665, 10666, 10667, 10668, 10669, 10670, 10671, 10672, 10673, 10674, 10675, 10676, 
10677, 10678, 10679, 10680, 10681, 10682, 10683, 10684, 10685, 10686, 10687, 10688, 10689, 10690, 10691, 10692, 
10693, 10694, 10695, 10696, 10697, 10698, 10699, 10700, 10701, 10702, 10703, 10704, 10705, 10706, 10707, 10708, 
10709, 10710, 10711, 10712, 10713, 10714, 10715, 10716, 10717, 10718, 10719, 10720, 10721, 10722, 10723, 10724, 
10725, 10726, 10727, 10728, 10729, 10730, 10731, 10732, 10733, 10734, 10735, 10736, 10737, 10738, 10739, 10740, 
10741, 10742, 10743, 10744, 10745, 10746, 10747, 10748, 10749, 10750, 10751, 10752, 10753, 10754, 10755, 10756, 
10757, 10758, 10759, 10760, 10761, 10762, 10763, 10764, 10765, 10766, 10767, 10768, 10769, 10770, 10771, 10772, 
10773, 10774, 10775, 10776, 10777, 10778, 10779, 10780, 10781, 10782, 10783, 10784, 10785, 10786, 10787, 10788, 
10789, 10790, 10791, 10792, 10793, 10794, 10795, 10796, 10797, 10798, 10799, 10800, 10801, 10802, 10803, 10804, 
10805, 10806, 10807, 10808, 10809, 10810, 10811, 10812, 10813, 10814, 10815, 10816, 10817, 10818, 10819, 10820, 
** ... 8 like lines cut
*Nset, Nset=NSET_BC_1
28, 29, 30, 31, 32, 33, 34, 35, 36, 37, 38, 39, 40, 41, 42, 43, 
44, 45, 46, 66, 67, 68, 69, 70, 71, 72, 73, 74, 75, 76, 77, 78, 
79, 80, 81, 82, 83, 84, 161, 162, 163, 164, 165, 166, 167, 168, 169, 170, 
171, 172, 173, 174, 175, 176, 177, 178, 179, 218, 219, 220, 221, 222, 223, 224, 
225, 226, 227, 228, 229, 230, 231, 232, 233, 234, 235, 236, 237, 238, 239, 240, 
241, 242, 243, 244, 245, 246, 247, 248, 249, 250, 251, 252, 253, 254, 255, 256, 
257, 258, 259, 260, 261, 262, 263, 264, 265, 266, 267, 268, 269, 270, 271, 272, 
273, 274, 275, 276, 277, 278, 279, 280, 281, 282, 283, 284, 285, 286, 287, 288, 
289, 290, 291, 292, 293, 294, 295, 296, 297, 298, 299, 300, 301, 302, 303, 304, 
305, 306, 307, 308, 309, 310, 311, 312, 313, 314, 315, 316, 317, 318, 319, 320, 
321, 322, 323, 324, 325, 326, 327, 328, 329, 330, 331, 332, 333, 334, 335, 336, 
337, 338, 339, 340, 341, 342, 343, 344, 345, 346, 347, 348, 349, 350, 351, 352, 
353, 354, 355, 356, 357, 358, 359, 360, 361, 362, 363, 364, 365, 366, 367, 368, 
369, 370, 371, 372, 373, 374, 375, 376, 377, 378, 379, 380, 381, 382, 383, 384, 
385, 386, 387, 388, 389, 390, 391, 392, 393, 394, 395, 396, 397, 398, 399, 400, 
401, 402, 403, 404, 405, 406, 407, 408, 409, 410, 411, 412, 413, 414, 415, 416, 
417, 418, 419, 420, 421, 422, 423, 424, 425, 426, 427, 428, 429, 430, 431, 432, 
433, 434, 435, 436, 437, 438, 439, 440, 441, 442, 443, 444, 445, 446, 447, 448, 
449, 450, 451, 452, 453, 454, 455, 456, 457, 458, 459, 460, 461, 462, 463, 464, 
465, 466, 467, 468, 469, 470, 471, 472, 473, 474, 475, 476, 477, 478, 479, 480, 
** ... 75 like lines cut
*Nset, Nset=NSET_BC_2
9289, 9290, 9291, 9292, 9293, 9294, 9295, 9296, 9297, 9298, 9299, 9300, 9301, 9302, 9303, 9304, 
9305, 9306, 9307, 9327, 9328, 9329, 9330, 9331, 9332, 9333, 9334, 9335, 9336, 9337, 9338, 9339, 
9340, 9341, 9342, 9343, 9344, 9345, 9422, 9423, 9424, 9425, 9426, 9427, 9428, 9429, 9430, 9431, 
9432, 9433, 9434, 9435, 9436, 9437, 9438, 9439, 9440, 9479, 9480, 9481, 9482, 9483, 9484, 9485, 
9486, 9487, 9488, 9489, 9490, 9491, 9492, 9493, 9494, 9495, 9496, 9497, 9498, 9499, 9500, 9501, 
9502, 9503, 9504, 9505, 9506, 9507, 9508, 9509, 9510, 9511, 9512, 9513, 9514, 9515, 9516, 9517, 
9518, 9519, 9520, 9521, 9522, 9523, 9524, 9525, 9526, 9527, 9528, 9529, 9530, 9531, 9532, 9533, 
9534, 9535, 9536, 9537, 9538, 9539, 9540, 9541, 9542, 9543, 9544, 9545, 9546, 9547, 9548, 9549, 
9550, 9551, 9552, 9553, 9554, 9555, 9556, 9557, 9558, 9559, 9560, 9561, 9562, 9563, 9564, 9565, 
9566, 9567, 9568, 9569, 9570, 9571, 9572, 9573, 9574, 9575, 9576, 9577, 9578, 9579, 9580, 9581, 
9582, 9583, 9584, 9585, 9586, 9587, 9588, 9589, 9590, 9591, 9592, 9593, 9594, 9595, 9596, 9597, 
9598, 9599, 9600, 9601, 9602, 9603, 9604, 9605, 9606, 9607, 9608, 9609, 9610, 9611, 9612, 9613, 
9614, 9615, 9616, 9617, 9618, 9619, 9620, 9621, 9622, 9623, 9624, 9625, 9626, 9627, 9628, 9629, 
9630, 9631, 9632, 9633, 9634, 9635, 9636, 9637, 9638, 9639, 9640, 9641, 9642, 9643, 9644, 9645, 
9646, 9647, 9648, 9649, 9650, 9651, 9652, 9653, 9654, 9655, 9656, 9657, 9658, 9659, 9660, 9661, 
9662, 9663, 9664, 9665, 9666, 9667, 9668, 9669, 9670, 9671, 9672, 9673, 9674, 9675, 9676, 9677, 
9678, 9679, 9680, 9681, 9682, 9683, 9684, 9685, 9686, 9687, 9688, 9689, 9690, 9691, 9692, 9693, 
9694, 9695, 9696, 9697, 9698, 9699, 9700, 9701, 9702, 9703, 9704, 9705, 9706, 9707, 9708, 9709, 
9710, 9711, 9712, 9713, 9714, 9715, 9716, 9717, 9718, 9719, 9720, 9721, 9722, 9723, 9724, 9725, 
9726, 9727, 9728, 9729, 9730, 9731, 9732, 9733, 9734, 9735, 9736, 9737, 9738, 9739, 9740, 9741, 
** ... 75 like lines cut
*Nset, Nset=Internal_Selection-1_Node_of_Cube_1
4
*Nset, Nset=Internal_Selection-1_Node_of_Cube_2
9265
**
** Additional node sets ++++++++++++++++++++++++++++++++++++
**
*Nset, Nset=RP_1_1_ref_185221
18523
*Nset, Nset=RP_1_1_rot_185222
18524
*Nset, Nset=RP_1_2_ref_185241
18525
*Nset, Nset=RP_1_2_rot_185242
18526
*Nset, Nset=RP_2_1_ref_185261
18527
*Nset, Nset=RP_2_1_rot_185262
18528
*Nset, Nset=RP_2_2_ref_185281
18529
*Nset, Nset=RP_2_2_rot_185282
18530
**
** Element sets ++++++++++++++++++++++++++++++++++++++++++++
**
*Elset, Elset=Internal_Selection-1_SECTION_CUBE_1
Solid_part-1
*Elset, Elset=Internal_Selection-1_SECTION_CUBE_2
Solid_part-2
**
** Additional element sets +++++++++++++++++++++++++++++++++
**
*Elset, Elset=k_1_DOF_2
16001
*Elset, Elset = ESPRING
999999
**
** Surfaces ++++++++++++++++++++++++++++++++++++++++++++++++
**
**
** Physical constants ++++++++++++++++++++++++++++++++++++++
**
**
** Coordinate systems ++++++++++++++++++++++++++++++++++++++
**
**
** Materials +++++++++++++++++++++++++++++++++++++++++++++++
**
** Name: S420: Deactivated
*Material, Name=Cube_1
*Density
1.125E-09
*Elastic
210000, 0.3
*Material, Name=Cube_2
*Density
1.25E-10
*Elastic
210000, 0.3
**
** Sections ++++++++++++++++++++++++++++++++++++++++++++++++
**
*Solid section, Elset=Internal_Selection-1_SECTION_CUBE_1, Material=Cube_1
*Solid section, Elset=Internal_Selection-1_SECTION_CUBE_2, Material=Cube_2
**
** Additional sections +++++++++++++++++++++++++++++++++++++
**
*Spring, Elset=k_1_DOF_2
2
0.024
*Spring,ELSET=ESPRING

0.003
**
** Pre-tension sections ++++++++++++++++++++++++++++++++++++
**
**
** Constraints +++++++++++++++++++++++++++++++++++++++++++++
**
*Rigid body, Nset=END_1_1, Ref node=18523, Rot node=18524
*Rigid body, Nset=END_1_2, Ref node=18525, Rot node=18526
*Rigid body, Nset=END_2_1, Ref node=18527, Rot node=18528
*Rigid body, Nset=END_2_2, Ref node=18529, Rot node=18530
**
** Surface interactions ++++++++++++++++++++++++++++++++++++
**
**
** Contact pairs +++++++++++++++++++++++++++++++++++++++++++
**
**
** Amplitudes ++++++++++++++++++++++++++++++++++++++++++++++
**
*Amplitude, Name=AMPLITUDE_SHOCK_4_SEC
0, 0, 0.1, 1, 0.11, 0, 4, 0
**
** Initial conditions ++++++++++++++++++++++++++++++++++++++
**
**
** Steps +++++++++++++++++++++++++++++++++++++++++++++++++++
**
**
** NORMAL_MODES ++++++++++++++++++++++++++++++++++++++++++++
**
*Step
*Frequency, Storage=Yes
2
**
** Controls ++++++++++++++++++++++++++++++++++++++++++++++++
**
**
** Output frequency ++++++++++++++++++++++++++++++++++++++++
**
*Output, Frequency=1
**
** Boundary conditions +++++++++++++++++++++++++++++++++++++
**
*Boundary, op=New
** Name: BC_1
*Boundary, Fixed
NSET_BC_1, 1, 1
NSET_BC_1, 3, 3
** Name: BC_2
*Boundary, Fixed
NSET_BC_2, 1, 1
NSET_BC_2, 3, 3
**
** Loads +++++++++++++++++++++++++++++++++++++++++++++++++++
**
**
** Defined fields ++++++++++++++++++++++++++++++++++++++++++
**
**
** History outputs +++++++++++++++++++++++++++++++++++++++++
**
**
** Field outputs +++++++++++++++++++++++++++++++++++++++++++
**
*Node file
RF, U
*El file
S, E, NOE
**
** End step ++++++++++++++++++++++++++++++++++++++++++++++++
**
*End step
**
** MODAL_DYNAMICS ++++++++++++++++++++++++++++++++++++++++++
**
*Step, Inc=100000
*Modal dynamics
0.01, 4
**
** Damping +++++++++++++++++++++++++++++++++++++++++++++++++
**
*Modal damping
1, 1000000, 0.01
**
** Controls ++++++++++++++++++++++++++++++++++++++++++++++++
**
**
** Output frequency ++++++++++++++++++++++++++++++++++++++++
**
*Output, Frequency=1
**
** Boundary conditions +++++++++++++++++++++++++++++++++++++
**
**
** Loads +++++++++++++++++++++++++++++++++++++++++++++++++++
**
*Cload, op=New
*Dload, op=New
** Name: Concentrated_Force-1
*Cload, Amplitude=AMPLITUDE_SHOCK_4_SEC
18529, 2, 5
**
** Defined fields ++++++++++++++++++++++++++++++++++++++++++
**
**
** History outputs +++++++++++++++++++++++++++++++++++++++++
**
*Node print, Nset=Internal_Selection-1_Node_of_Cube_1, Global=Yes
U
*Node print, Nset=Internal_Selection-1_Node_of_Cube_2, Global=Yes
U
**
** Field outputs +++++++++++++++++++++++++++++++++++++++++++
**
*Node file
RF, U
*El file
S, E, NOE
**
** End step ++++++++++++++++++++++++++++++++++++++++++++++++
**
*End step
